
#######################################################################
#
#                 Cambridge Crystallographic Data Centre
#                                CCDC 
#
#######################################################################
#
# If this CIF has been generated from an entry in the Cambridge 
# Structural Database, then it will include bibliographic, chemical, 
# crystal, experimental, refinement or atomic coordinate data resulting 
# from the CCDC's data processing and validation procedures.
#
#######################################################################

data_TETCEN
_symmetry_cell_setting           triclinic
_symmetry_space_group_name_H-M   'P -1'
_symmetry_Int_Tables_number      2
_space_group_name_Hall           '-P 1'
loop_
_symmetry_equiv_pos_site_id
_symmetry_equiv_pos_as_xyz
1 x,y,z
2 -x,-y,-z
_cell_length_a                   7.900
_cell_length_b                   6.030
_cell_length_c                   13.530
_cell_angle_alpha                100.30
_cell_angle_beta                 113.20
_cell_angle_gamma                86.30
_cell_volume                     582.85
loop_
_atom_site_label
_atom_site_type_symbol
_atom_site_fract_x
_atom_site_fract_y
_atom_site_fract_z
C1 C 0.11940 0.03310 0.38900
C2 C 0.14940 0.15640 0.32190
C3 C 0.08110 0.07240 0.20400
C4 C 0.10940 0.18990 0.13600
C5 C 0.04670 0.10890 0.02110
C6 C 0.06910 0.22280 -0.05160
C7 C -0.00350 -0.14050 0.16370
C8 C -0.03780 -0.26460 0.23550
C9 C 0.02670 -0.18320 0.34830
H1 H 0.16800 0.10000 0.47000
H2 H 0.21200 0.31700 0.34900
H3 H 0.17600 0.35400 0.16500
H4 H 0.13400 0.38800 -0.02200
H5 H -0.09500 -0.42500 0.20200
H6 H 0.01100 -0.27900 0.40000
C5A C -0.04670 -0.10890 -0.02110
C7A C 0.00350 0.14050 -0.16370
C6A C -0.06910 -0.22280 0.05160
C4A C -0.10940 -0.18990 -0.13600
C3A C -0.08110 -0.07240 -0.20400
C8A C 0.03780 0.26460 -0.23550
H4A H -0.13400 -0.38800 0.02200
H3A H -0.17600 -0.35400 -0.16500
C2A C -0.14940 -0.15640 -0.32190
C9A C -0.02670 0.18320 -0.34830
H5A H 0.09500 0.42500 -0.20200
C1A C -0.11940 -0.03310 -0.38900
H2A H -0.21200 -0.31700 -0.34900
H6A H -0.01100 0.27900 -0.40000
H1A H -0.16800 -0.10000 -0.47000
C1 C 0.11940 0.03310 1.38900
C2 C 0.14940 0.15640 1.32190
C3 C 0.08110 0.07240 1.20400
C4 C 0.10940 0.18990 1.13600
C5 C 0.04670 0.10890 1.02110
C6 C 0.06910 0.22280 0.94840
C7 C -0.00350 -0.14050 1.16370
C8 C -0.03780 -0.26460 1.23550
C9 C 0.02670 -0.18320 1.34830
H1 H 0.16800 0.10000 1.47000
H2 H 0.21200 0.31700 1.34900
H3 H 0.17600 0.35400 1.16500
H4 H 0.13400 0.38800 0.97800
H5 H -0.09500 -0.42500 1.20200
H6 H 0.01100 -0.27900 1.40000
C5A C -0.04670 -0.10890 0.97890
C7A C 0.00350 0.14050 0.83630
C6A C -0.06910 -0.22280 1.05160
C4A C -0.10940 -0.18990 0.86400
C3A C -0.08110 -0.07240 0.79600
C8A C 0.03780 0.26460 0.76450
H4A H -0.13400 -0.38800 1.02200
H3A H -0.17600 -0.35400 0.83500
C2A C -0.14940 -0.15640 0.67810
C9A C -0.02670 0.18320 0.65170
H5A H 0.09500 0.42500 0.79800
C1A C -0.11940 -0.03310 0.61100
H2A H -0.21200 -0.31700 0.65100
H6A H -0.01100 0.27900 0.60000
H1A H -0.16800 -0.10000 0.53000
C1 C 0.11940 1.03310 0.38900
C2 C 0.14940 1.15640 0.32190
C3 C 0.08110 1.07240 0.20400
C4 C 0.10940 1.18990 0.13600
C5 C 0.04670 1.10890 0.02110
C6 C 0.06910 1.22280 -0.05160
C7 C -0.00350 0.85950 0.16370
C8 C -0.03780 0.73540 0.23550
C9 C 0.02670 0.81680 0.34830
H1 H 0.16800 1.10000 0.47000
H2 H 0.21200 1.31700 0.34900
H3 H 0.17600 1.35400 0.16500
H4 H 0.13400 1.38800 -0.02200
H5 H -0.09500 0.57500 0.20200
H6 H 0.01100 0.72100 0.40000
C5A C -0.04670 0.89110 -0.02110
C7A C 0.00350 1.14050 -0.16370
C6A C -0.06910 0.77720 0.05160
C4A C -0.10940 0.81010 -0.13600
C3A C -0.08110 0.92760 -0.20400
C8A C 0.03780 1.26460 -0.23550
H4A H -0.13400 0.61200 0.02200
H3A H -0.17600 0.64600 -0.16500
C2A C -0.14940 0.84360 -0.32190
C9A C -0.02670 1.18320 -0.34830
H5A H 0.09500 1.42500 -0.20200
C1A C -0.11940 0.96690 -0.38900
H2A H -0.21200 0.68300 -0.34900
H6A H -0.01100 1.27900 -0.40000
H1A H -0.16800 0.90000 -0.47000
C1 C 0.11940 1.03310 1.38900
C2 C 0.14940 1.15640 1.32190
C3 C 0.08110 1.07240 1.20400
C4 C 0.10940 1.18990 1.13600
C5 C 0.04670 1.10890 1.02110
C6 C 0.06910 1.22280 0.94840
C7 C -0.00350 0.85950 1.16370
C8 C -0.03780 0.73540 1.23550
C9 C 0.02670 0.81680 1.34830
H1 H 0.16800 1.10000 1.47000
H2 H 0.21200 1.31700 1.34900
H3 H 0.17600 1.35400 1.16500
H4 H 0.13400 1.38800 0.97800
H5 H -0.09500 0.57500 1.20200
H6 H 0.01100 0.72100 1.40000
C5A C -0.04670 0.89110 0.97890
C7A C 0.00350 1.14050 0.83630
C6A C -0.06910 0.77720 1.05160
C4A C -0.10940 0.81010 0.86400
C3A C -0.08110 0.92760 0.79600
C8A C 0.03780 1.26460 0.76450
H4A H -0.13400 0.61200 1.02200
H3A H -0.17600 0.64600 0.83500
C2A C -0.14940 0.84360 0.67810
C9A C -0.02670 1.18320 0.65170
H5A H 0.09500 1.42500 0.79800
C1A C -0.11940 0.96690 0.61100
H2A H -0.21200 0.68300 0.65100
H6A H -0.01100 1.27900 0.60000
H1A H -0.16800 0.90000 0.53000
C1 C 1.11940 0.03310 0.38900
C2 C 1.14940 0.15640 0.32190
C3 C 1.08110 0.07240 0.20400
C4 C 1.10940 0.18990 0.13600
C5 C 1.04670 0.10890 0.02110
C6 C 1.06910 0.22280 -0.05160
C7 C 0.99650 -0.14050 0.16370
C8 C 0.96220 -0.26460 0.23550
C9 C 1.02670 -0.18320 0.34830
H1 H 1.16800 0.10000 0.47000
H2 H 1.21200 0.31700 0.34900
H3 H 1.17600 0.35400 0.16500
H4 H 1.13400 0.38800 -0.02200
H5 H 0.90500 -0.42500 0.20200
H6 H 1.01100 -0.27900 0.40000
C5A C 0.95330 -0.10890 -0.02110
C7A C 1.00350 0.14050 -0.16370
C6A C 0.93090 -0.22280 0.05160
C4A C 0.89060 -0.18990 -0.13600
C3A C 0.91890 -0.07240 -0.20400
C8A C 1.03780 0.26460 -0.23550
H4A H 0.86600 -0.38800 0.02200
H3A H 0.82400 -0.35400 -0.16500
C2A C 0.85060 -0.15640 -0.32190
C9A C 0.97330 0.18320 -0.34830
H5A H 1.09500 0.42500 -0.20200
C1A C 0.88060 -0.03310 -0.38900
H2A H 0.78800 -0.31700 -0.34900
H6A H 0.98900 0.27900 -0.40000
H1A H 0.83200 -0.10000 -0.47000
C1 C 1.11940 0.03310 1.38900
C2 C 1.14940 0.15640 1.32190
C3 C 1.08110 0.07240 1.20400
C4 C 1.10940 0.18990 1.13600
C5 C 1.04670 0.10890 1.02110
C6 C 1.06910 0.22280 0.94840
C7 C 0.99650 -0.14050 1.16370
C8 C 0.96220 -0.26460 1.23550
C9 C 1.02670 -0.18320 1.34830
H1 H 1.16800 0.10000 1.47000
H2 H 1.21200 0.31700 1.34900
H3 H 1.17600 0.35400 1.16500
H4 H 1.13400 0.38800 0.97800
H5 H 0.90500 -0.42500 1.20200
H6 H 1.01100 -0.27900 1.40000
C5A C 0.95330 -0.10890 0.97890
C7A C 1.00350 0.14050 0.83630
C6A C 0.93090 -0.22280 1.05160
C4A C 0.89060 -0.18990 0.86400
C3A C 0.91890 -0.07240 0.79600
C8A C 1.03780 0.26460 0.76450
H4A H 0.86600 -0.38800 1.02200
H3A H 0.82400 -0.35400 0.83500
C2A C 0.85060 -0.15640 0.67810
C9A C 0.97330 0.18320 0.65170
H5A H 1.09500 0.42500 0.79800
C1A C 0.88060 -0.03310 0.61100
H2A H 0.78800 -0.31700 0.65100
H6A H 0.98900 0.27900 0.60000
H1A H 0.83200 -0.10000 0.53000
C1 C 1.11940 1.03310 0.38900
C2 C 1.14940 1.15640 0.32190
C3 C 1.08110 1.07240 0.20400
C4 C 1.10940 1.18990 0.13600
C5 C 1.04670 1.10890 0.02110
C6 C 1.06910 1.22280 -0.05160
C7 C 0.99650 0.85950 0.16370
C8 C 0.96220 0.73540 0.23550
C9 C 1.02670 0.81680 0.34830
H1 H 1.16800 1.10000 0.47000
H2 H 1.21200 1.31700 0.34900
H3 H 1.17600 1.35400 0.16500
H4 H 1.13400 1.38800 -0.02200
H5 H 0.90500 0.57500 0.20200
H6 H 1.01100 0.72100 0.40000
C5A C 0.95330 0.89110 -0.02110
C7A C 1.00350 1.14050 -0.16370
C6A C 0.93090 0.77720 0.05160
C4A C 0.89060 0.81010 -0.13600
C3A C 0.91890 0.92760 -0.20400
C8A C 1.03780 1.26460 -0.23550
H4A H 0.86600 0.61200 0.02200
H3A H 0.82400 0.64600 -0.16500
C2A C 0.85060 0.84360 -0.32190
C9A C 0.97330 1.18320 -0.34830
H5A H 1.09500 1.42500 -0.20200
C1A C 0.88060 0.96690 -0.38900
H2A H 0.78800 0.68300 -0.34900
H6A H 0.98900 1.27900 -0.40000
H1A H 0.83200 0.90000 -0.47000
C1 C 1.11940 1.03310 1.38900
C2 C 1.14940 1.15640 1.32190
C3 C 1.08110 1.07240 1.20400
C4 C 1.10940 1.18990 1.13600
C5 C 1.04670 1.10890 1.02110
C6 C 1.06910 1.22280 0.94840
C7 C 0.99650 0.85950 1.16370
C8 C 0.96220 0.73540 1.23550
C9 C 1.02670 0.81680 1.34830
H1 H 1.16800 1.10000 1.47000
H2 H 1.21200 1.31700 1.34900
H3 H 1.17600 1.35400 1.16500
H4 H 1.13400 1.38800 0.97800
H5 H 0.90500 0.57500 1.20200
H6 H 1.01100 0.72100 1.40000
C5A C 0.95330 0.89110 0.97890
C7A C 1.00350 1.14050 0.83630
C6A C 0.93090 0.77720 1.05160
C4A C 0.89060 0.81010 0.86400
C3A C 0.91890 0.92760 0.79600
C8A C 1.03780 1.26460 0.76450
H4A H 0.86600 0.61200 1.02200
H3A H 0.82400 0.64600 0.83500
C2A C 0.85060 0.84360 0.67810
C9A C 0.97330 1.18320 0.65170
H5A H 1.09500 1.42500 0.79800
C1A C 0.88060 0.96690 0.61100
H2A H 0.78800 0.68300 0.65100
H6A H 0.98900 1.27900 0.60000
H1A H 0.83200 0.90000 0.53000
C10 C 0.54280 0.56800 0.37870
C11 C 0.47990 0.68610 0.29300
C12 C 0.49970 0.58640 0.19470
C13 C 0.44250 0.70070 0.10480
C14 C 0.46380 0.61400 0.00520
C15 C 0.40520 0.72420 -0.08320
C16 C 0.57580 0.36490 0.18110
C17 C 0.63060 0.25680 0.26850
C18 C 0.61480 0.33740 0.36450
H7 H 0.53100 0.65000 0.45400
H8 H 0.42500 0.85200 0.30500
H9 H 0.38600 0.87000 0.11400
H10 H 0.35100 0.88700 -0.07200
H11 H 0.68500 0.08900 0.25300
H12 H 0.65500 0.24600 0.42500
C14A C 0.53620 0.38600 -0.00520
C16A C 0.42420 0.63510 -0.18110
C15A C 0.59480 0.27580 0.08320
C13A C 0.55750 0.29930 -0.10480
C12A C 0.50030 0.41360 -0.19470
C17A C 0.36940 0.74320 -0.26850
H10A H 0.64900 0.11300 0.07200
H9A H 0.61400 0.13000 -0.11400
C11A C 0.52010 0.31390 -0.29300
C18A C 0.38520 0.66260 -0.36450
H11A H 0.31500 0.91100 -0.25300
C10A C 0.45720 0.43200 -0.37870
H8A H 0.57500 0.14800 -0.30500
H12A H 0.34500 0.75400 -0.42500
H7A H 0.46900 0.35000 -0.45400
C10 C 0.54280 0.56800 1.37870
C11 C 0.47990 0.68610 1.29300
C12 C 0.49970 0.58640 1.19470
C13 C 0.44250 0.70070 1.10480
C14 C 0.46380 0.61400 1.00520
C15 C 0.40520 0.72420 0.91680
C16 C 0.57580 0.36490 1.18110
C17 C 0.63060 0.25680 1.26850
C18 C 0.61480 0.33740 1.36450
H7 H 0.53100 0.65000 1.45400
H8 H 0.42500 0.85200 1.30500
H9 H 0.38600 0.87000 1.11400
H10 H 0.35100 0.88700 0.92800
H11 H 0.68500 0.08900 1.25300
H12 H 0.65500 0.24600 1.42500
C14A C 0.53620 0.38600 0.99480
C16A C 0.42420 0.63510 0.81890
C15A C 0.59480 0.27580 1.08320
C13A C 0.55750 0.29930 0.89520
C12A C 0.50030 0.41360 0.80530
C17A C 0.36940 0.74320 0.73150
H10A H 0.64900 0.11300 1.07200
H9A H 0.61400 0.13000 0.88600
C11A C 0.52010 0.31390 0.70700
C18A C 0.38520 0.66260 0.63550
H11A H 0.31500 0.91100 0.74700
C10A C 0.45720 0.43200 0.62130
H8A H 0.57500 0.14800 0.69500
H12A H 0.34500 0.75400 0.57500
H7A H 0.46900 0.35000 0.54600

#END
